@<TRIPOS>MOLECULE
*****
 78 82 0 0 0
SMALL
GASTEIGER

@<TRIPOS>ATOM
      1 C         -14.0294    2.3146   -3.1496 C.3     1  UNL1       -0.0430
      2 N         -13.0135    1.3451   -2.7508 N.4     1  UNL1        0.2353
      3 C         -11.6576    1.9301   -2.8764 C.3     1  UNL1       -0.0160
      4 C         -10.5517    0.9445   -2.4367 C.3     1  UNL1        0.0525
      5 C         -13.2235    0.9152   -1.3493 C.3     1  UNL1       -0.0160
      6 C         -12.1416   -0.0774   -0.8557 C.3     1  UNL1        0.0525
      7 N         -10.8051    0.5084   -1.0553 N.pl3   1  UNL1       -0.3197
      8 C          -9.7708    0.3139   -0.1634 C.ar    1  UNL1        0.0336
      9 C          -9.7662   -0.7393    0.7491 C.ar    1  UNL1       -0.0387
     10 C          -8.7865   -0.8476    1.7420 C.ar    1  UNL1       -0.0352
     11 C          -8.6998    1.2168   -0.0752 C.ar    1  UNL1        0.0029
     12 C          -7.7159    1.1280    0.9244 C.ar    1  UNL1        0.1429
     13 O          -6.8258    2.1770    0.9397 O.3     1  UNL1       -0.4932
     14 C          -5.4469    1.8468    1.0981 C.3     1  UNL1        0.0789
     15 C          -7.8070    0.1353    1.9157 C.ar    1  UNL1        0.0748
     16 N          -6.9306    0.1603    3.0331 N.pl3   1  UNL1       -0.2954
     17 C          -7.0831   -0.4663    4.2969 C.ar    1  UNL1        0.1456
     18 N          -8.0163   -1.4240    4.4594 N.ar    1  UNL1       -0.1978
     19 C          -8.0955   -2.0736    5.6204 C.ar    1  UNL1        0.2212
     20 N          -9.0439   -3.0835    5.7101 N.pl3   1  UNL1       -0.2836
     21 C          -8.9798   -4.2415    6.4823 C.ar    1  UNL1        0.0342
     22 C         -10.1373   -4.8479    6.9269 C.ar    1  UNL1       -0.0387
     23 C         -10.0646   -5.8733    7.8779 C.ar    1  UNL1       -0.0384
     24 C          -8.8477   -6.3963    8.3895 C.ar    1  UNL1        0.0419
     25 N          -8.9191   -7.2993    9.4369 N.pl3   1  UNL1       -0.3193
     26 C          -9.9879   -8.3204    9.5197 C.3     1  UNL1        0.0525
     27 C         -10.4987   -8.4528   10.9754 C.3     1  UNL1       -0.0160
     28 N          -9.4063   -8.7875   11.9121 N.4     1  UNL1        0.2353
     29 C          -9.8967   -8.9273   13.2782 C.3     1  UNL1       -0.0430
     30 C          -8.3802   -7.7277   11.8389 C.3     1  UNL1       -0.0160
     31 C          -7.8351   -7.5254   10.4095 C.3     1  UNL1        0.0525
     32 C          -7.6729   -5.8680    7.8193 C.ar    1  UNL1        0.0775
     33 C          -6.2441   -6.3196    8.0229 C.3     1  UNL1        0.4192
     34 F          -6.0472   -7.5420    8.5801 F       1  UNL1       -0.1658
     35 F          -5.5586   -6.3855    6.8373 F       1  UNL1       -0.1658
     36 F          -5.5313   -5.4403    8.7887 F       1  UNL1       -0.1658
     37 C          -7.7705   -4.7726    6.9218 C.ar    1  UNL1       -0.0270
     38 N          -7.3215   -1.7834    6.6751 N.ar    1  UNL1       -0.2213
     39 C          -6.4187   -0.8063    6.5221 C.ar    1  UNL1        0.0519
     40 C          -6.2321   -0.1335    5.3416 C.ar    1  UNL1        0.1098
     41 C          -5.2490    0.8835    5.2557 C.1     1  UNL1        0.1041
     42 N          -4.4642    1.7392    5.1621 N.1     1  UNL1       -0.1907
     43 H         -13.8602    2.6119   -4.1634 H       1  UNL1        0.0778
     44 H         -13.9736    3.1722   -2.5122 H       1  UNL1        0.0778
     45 H         -14.9991    1.8701   -3.0653 H       1  UNL1        0.0778
     46 H         -13.0944    0.5378   -3.3690 H       1  UNL1        0.2032
     47 H         -11.6022    2.8054   -2.2634 H       1  UNL1        0.0830
     48 H         -11.4961    2.1650   -3.9077 H       1  UNL1        0.0830
     49 H          -9.5997    1.4303   -2.4885 H       1  UNL1        0.0516
     50 H         -10.5534    0.0937   -3.0855 H       1  UNL1        0.0516
     51 H         -14.1802    0.4414   -1.2770 H       1  UNL1        0.0830
     52 H         -13.1644    1.7879   -0.7330 H       1  UNL1        0.0830
     53 H         -12.2166   -0.9900   -1.4092 H       1  UNL1        0.0516
     54 H         -12.2903   -0.2763    0.1851 H       1  UNL1        0.0516
     55 H         -10.5046   -1.4580    0.6910 H       1  UNL1        0.0637
     56 H          -8.7867   -1.6730    2.3614 H       1  UNL1        0.0638
     57 H          -8.6321    1.9755   -0.7715 H       1  UNL1        0.0673
     58 H          -4.8628    2.7433    1.0938 H       1  UNL1        0.0660
     59 H          -5.1366    1.2151    0.2922 H       1  UNL1        0.0660
     60 H          -5.3072    1.3345    2.0270 H       1  UNL1        0.0660
     61 H          -6.1051    0.6836    2.9146 H       1  UNL1        0.1537
     62 H          -9.8556   -2.9681    5.1651 H       1  UNL1        0.1550
     63 H         -11.0535   -4.5465    6.5597 H       1  UNL1        0.0637
     64 H         -10.9492   -6.2731    8.2282 H       1  UNL1        0.0637
     65 H          -9.6001   -9.2634    9.1953 H       1  UNL1        0.0516
     66 H         -10.8019   -8.0214    8.8928 H       1  UNL1        0.0516
     67 H         -11.2373   -9.2261   11.0143 H       1  UNL1        0.0830
     68 H         -10.9122   -7.5108   11.2697 H       1  UNL1        0.0830
     69 H          -9.0030   -9.6852   11.6440 H       1  UNL1        0.2032
     70 H         -10.3294   -8.0025   13.5982 H       1  UNL1        0.0778
     71 H          -9.0834   -9.1832   13.9247 H       1  UNL1        0.0778
     72 H         -10.6372   -9.6988   13.3141 H       1  UNL1        0.0778
     73 H          -7.5668   -7.9937   12.4811 H       1  UNL1        0.0830
     74 H          -8.8402   -6.8106   12.1426 H       1  UNL1        0.0830
     75 H          -7.2875   -8.3981   10.1210 H       1  UNL1        0.0516
     76 H          -7.2059   -6.6600   10.4131 H       1  UNL1        0.0516
     77 H          -6.8965   -4.3464    6.5760 H       1  UNL1        0.0642
     78 H          -5.8345   -0.5468    7.3323 H       1  UNL1        0.0845
@<TRIPOS>UNITY_ATOM_ATTR
2 1
charge 1
28 1
charge 1
@<TRIPOS>BOND
     1     2     1    1
     2     3     2    1
     3     4     3    1
     4     5     2    1
     5     6     5    1
     6     7     6    1
     7     7     4    1
     8     8     7    1
     9     9     8   ar
    10    10     9   ar
    11    11     8   ar
    12    12    11   ar
    13    13    12    1
    14    14    13    1
    15    15    12   ar
    16    15    10   ar
    17    16    15    1
    18    17    16    1
    19    18    17   ar
    20    19    18   ar
    21    20    19    1
    22    21    20    1
    23    22    21   ar
    24    23    22   ar
    25    24    23   ar
    26    25    24    1
    27    26    25    1
    28    27    26    1
    29    28    27    1
    30    29    28    1
    31    30    28    1
    32    31    30    1
    33    31    25    1
    34    32    24   ar
    35    33    32    1
    36    34    33    1
    37    35    33    1
    38    36    33    1
    39    37    32   ar
    40    37    21   ar
    41    38    19   ar
    42    39    38   ar
    43    40    39   ar
    44    40    17   ar
    45    41    40    1
    46    42    41    3
    47     1    43    1
    48     1    44    1
    49     1    45    1
    50     2    46    1
    51     3    47    1
    52     3    48    1
    53     4    49    1
    54     4    50    1
    55     5    51    1
    56     5    52    1
    57     6    53    1
    58     6    54    1
    59     9    55    1
    60    10    56    1
    61    11    57    1
    62    14    58    1
    63    14    59    1
    64    14    60    1
    65    16    61    1
    66    20    62    1
    67    22    63    1
    68    23    64    1
    69    26    65    1
    70    26    66    1
    71    27    67    1
    72    27    68    1
    73    28    69    1
    74    29    70    1
    75    29    71    1
    76    29    72    1
    77    30    73    1
    78    30    74    1
    79    31    75    1
    80    31    76    1
    81    37    77    1
    82    39    78    1
